pglib_opf_case1803_snem/pglib_opf_case1803_snem_6regions.m
% -------------------------------------------------------------------------
% Partitioned MATPOWER Case File
% Copyright (c) 2025 Milad Hasanzadeh
% Generated on: 2026-06-09
% This file contains partitioned data for 6 regions


% -------------------- mpc_regionR1 --------------------

mpc_regionR1.version = '2';
mpc_regionR1.baseMVA = 100.0000;
mpc_regionR1.bus = [
%	bus_i       type        Pd          Qd          Gs          Bs          area        Vm          Va          baseKV      zone        Vmax        Vmin        
	 1	 2	 85.8045954266	 0	 0	 0	 1	 1	 0	 110	 1	 1.1	 0.9;
	 2	 1	 21.3296455352	 2.46440226896	 0	 0	 1	 1	 0	 66	 1	 1.1	 0.9;
	 3	 1	 14.4434657387	 3.79346401581	 0	 0	 1	 1	 0	 66	 1	 1.1	 0.9;
	 4	 1	 0	 0	 0	 0	 1	 1	 0	 66	 1	 1.1	 0.9;
	 5	 1	 1.01595722773	 0.355317011995	 0	 0	 1	 1	 0	 66	 1	 1.1	 0.9;
	 6	 1	 19.4689983869	 3.45594364029	 0	 0	 1	 1	 0	 66	 1	 1.1	 0.9;
	 7	 1	 5.71820972678	-2.36364294204	 0	 19.6126282457	 1	 1	 0	 66	 1	 1.1	 0.9;
	 8	 1	 24.8273337417	 5.52732802267	 0	 5.0865930107	 3	 1	 0	 33	 1	 1.1	 0.9;
	 9	 1	 2.48683959768	-0.959026231093	 0	 0	 3	 1	 0	 6.6	 1	 1.1	 0.9;
	 10	 1	 0	 0	 0	 0	 3	 1	 0	 132	 1	 1.1	 0.9;
	 11	 1	 0	 0	 0	 0	 3	 1	 0	 132	 1	 1.1	 0.9;
	 12	 1	 37.9361193551	 5.13911492054	 0	 0	 3	 1	 0	 33	 1	 1.1	 0.9;
	 13	 1	 5.58108820901	 2.29674421937	 0	 0	 3	 1	 0	 11	 1	 1.1	 0.9;
	 14	 1	 7.0432295032	 2.45981465268	 0	 0	 3	 1	 0	 11	 1	 1.1	 0.9;
	 15	 1	 0	 0	 0	 0	 3	 1	 0	 110	 1	 1.1	 0.9;
	 16	 1	 15.390037817	 11.8335031691	 0	 0	 3	 1	 0	 33	 1	 1.1	 0.9;
	 17	 1	 0	 0	 0	 0	 3	 1	 0	 110	 1	 1.1	 0.9;
	 18	 1	 0	 0	 0	 0	 3	 1	 0	 110	 1	 1.1	 0.9;
	 19	 1	 7.66881709664	-0.295914825022	 0	 0	 3	 1	 0	 110	 1	 1.1	 0.9;
	 20	 1	 79.8823462889	 36.8842467795	 0	 19.6404997414	 3	 1	 0	 33	 1	 1.1	 0.9;
	 21	 1	 0	 0	 0	 0	 3	 1	 0	 132	 1	 1.1	 0.9;
	 22	 1	 7.07437783976	 1.35382590689	 0	 0	 3	 1	 0	 66	 1	 1.1	 0.9;
	 23	 1	 0	 0	 0	 0	 3	 1	 0	 132	 1	 1.1	 0.9;
	 24	 1	 0	 0	 0	 0	 3	 1	 0	 110	 1	 1.1	 0.9;
	 25	 1	 16.1757864934	 3.30934693561	 0	 0	 3	 1	 0	 33	 1	 1.1	 0.9;
	 26	 1	 0	 0	 0	 0	 3	 1	 0	 132	 1	 1.1	 0.9;
	 27	 1	 33.4305112168	 1.82585502932	 0	 10.094007575	 3	 1	 0	 33	 1	 1.1	 0.9;
	 28	 1	 14.0622884349	-2.45112358236	 0	 0	 3	 1	 0	 66	 1	 1.1	 0.9;
	 29	 1	 1.81125079851	-2.6021433029	 0	 0	 3	 1	 0	 6.6	 1	 1.1	 0.9;
	 30	 1	 1.04031343215	-0.906346366811	 0	 0	 3	 1	 0	 132	 1	 1.1	 0.9;
	 31	 1	 68.7480104352	 12.9866376085	 0	 0	 3	 1	 0	 66	 1	 1.1	 0.9;
	 32	 1	 54.0118393975	 33.0226172208	 0	 0	 3	 1	 0	 11	 1	 1.1	 0.9;
	 33	 1	 0	 0	 0	 0	 3	 1	 0	 110	 1	 1.1	 0.9;
	 34	 1	 45.2972273316	 12.8323976144	 0	 19.8922508135	 3	 1	 0	 33	 1	 1.1	 0.9;
	 35	 1	 0	 0	 0	 0	 3	 1	 0	 110	 1	 1.1	 0.9;
	 36	 1	 23.836942642	 8.62703598491	 0	 0	 3	 1	 0	 33	 1	 1.1	 0.9;
	 37	 1	 4.52459669046	 0.590389267817	 0	 0	 3	 1	 0	 110	 1	 1.1	 0.9;
	 38	 1	 46.5752107819	 3.59709528598	 0	 0	 3	 1	 0	 33	 1	 1.1	 0.9;
	 39	 1	 0	 0	 0	 0	 3	 1	 0	 132	 1	 1.1	 0.9;
	 40	 1	 17.3722357391	 2.05104456182	 0	 97.570455973	 3	 1	 0	 110	 1	 1.1	 0.9;
	 41	 1	 56.6338721722	 40.2638449855	 0	 18.5739549063	 3	 1	 0	 33	 1	 1.1	 0.9;
	 42	 1	 0	 0	 0	 0	 3	 1	 0	 110	 1	 1.1	 0.9;
	 43	 1	 22.5587575611	 5.17920890125	 0	 0	 3	 1	 0	 33	 1	 1.1	 0.9;
	 44	 1	 0	 0	 0	 0	 3	 1	 0	 132	 1	 1.1	 0.9;
	 45	 1	 0	 0	 0	 0	 3	 1	 0	 132	 1	 1.1	 0.9;
	 46	 1	 72.6027510219	 10.9850171066	 0	 0	 3	 1	 0	 66	 1	 1.1	 0.9;
	 47	 1	 58.7096149666	 13.6816201192	 0	 0	 3	 1	 0	 132	 1	 1.1	 0.9;
	 48	 1	 30.072234617	 4.05088432083	 0	 0	 3	 1	 0	 66	 1	 1.1	 0.9;
	 49	 1	 0	 0	 0	 0	 3	 1	 0	 110	 1	 1.1	 0.9;
	 50	 1	 18.5948333349	 7.66101234971	 0	 0	 3	 1	 0	 11	 1	 1.1	 0.9;
	 51	 1	 17.3445014287	 8.71794102823	 0	 0	 3	 1	 0	 11	 1	 1.1	 0.9;
	 52	 1	 7.05119532747	-0.193884178766	 0	 0	 3	 1	 0	 66	 1	 1.1	 0.9;
	 53	 1	 0	 0	 0	 0	 3	 1	 0	 66	 1	 1.1	 0.9;
	 54	 1	 0	 0	 0	 0	 3	 1	 0	 110	 1	 1.1	 0.9;
	 55	 1	 27.3492023503	 9.18314441981	 0	 0	 3	 1	 0	 33	 1	 1.1	 0.9;
	 56	 1	 0	 0	 0	 0	 3	 1	 0	 110	 1	 1.1	 0.9;
	 57	 1	 7.8887475778	 2.14984633136	 0	 0	 3	 1	 0	 11	 1	 1.1	 0.9;
	 58	 1	 5.95127617659	 0.0069794530625	 0	 0	 3	 1	 0	 11	 1	 1.1	 0.9;
	 59	 1	 0	 0	 0	 0	 3	 1	 0	 110	 1	 1.1	 0.9;
	 60	 1	 23.1702586526	 2.84092436289	 0	 0	 3	 1	 0	 11	 1	 1.1	 0.9;
	 61	 1	 25.0581545488	 5.54470618802	 0	 0	 3	 1	 0	 11	 1	 1.1	 0.9;
	 62	 1	 46.1540881953	-4.70344001089	 0	 0	 3	 1	 0	 132	 1	 1.1	 0.9;
	 63	 1	 0	 0	 0	 0	 3	 1	 0	 10.5	 1	 1.1	 0.9;
	 64	 1	 0	 0	 0	 0	 3	 1	 0	 10.5	 1	 1.1	 0.9;
	 65	 2	 0.176659434402	 0	 0	 0	 3	 1	 0	 11	 1	 1.1	 0.9;
	 66	 2	 4.54275251406	 0	 0	 0	 3	 1	 0	 11	 1	 1.1	 0.9;
	 67	 2	 0.169302481564	 0	 0	 0	 3	 1	 0	 11	 1	 1.1	 0.9;
	 68	 1	 0.725724118201	-2.56847391403	 0	 0	 3	 1	 0	 132	 1	 1.1	 0.9;
	 69	 2	 0	 0	 0	 0	 3	 1	 0	 275	 1	 1.1	 0.9;
	 70	 1	 11.4814310059	 2.20755699958	 0	 0	 3	 1	 0	 110	 1	 1.1	 0.9;
	 71	 1	 3.49248374233	 1.04735808446	 0	 0	 3	 1	 0	 110	 1	 1.1	 0.9;
	 72	 1	 21.8881004934	 9.40893772219	 0	 0	 3	 1	 0	 110	 1	 1.1	 0.9;
	 73	 1	 0.196116123092	 0.166262212709	 0	 0	 3	 1	 0	 132	 1	 1.1	 0.9;
	 74	 1	 0.206417703987	-1.21590397709	 0	 0	 3	 1	 0	 132	 1	 1.1	 0.9;
	 75	 1	 0.182544517193	 1.29622656035	 0	 0	 3	 1	 0	 110	 1	 1.1	 0.9;
	 76	 1	 19.1526402367	 3.19504243769	 0	 0	 3	 1	 0	 11	 1	 1.1	 0.9;
	 77	 1	 17.5244573489	 3.01862131889	 0	 0	 3	 1	 0	 11	 1	 1.1	 0.9;
	 78	 1	 0	 0	 0	 0	 3	 1	 0	 132	 1	 1.1	 0.9;
	 79	 1	 22.8791676349	 1.76857886177	 0	 0	 3	 1	 0	 66	 1	 1.1	 0.9;
	 80	 1	 0	 0	 0	 0	 3	 1	 0	 110	 1	 1.1	 0.9;
	 81	 1	 80.190881672	 32.1475637421	 0	 19.2893978147	 3	 1	 0	 33	 1	 1.1	 0.9;
	 82	 1	 0.102365530282	-2.86251966512	 0	 0	 3	 1	 0	 110	 1	 1.1	 0.9;
	 83	 1	 0	 0	 0	 0	 3	 1	 0	 110	 1	 1.1	 0.9;
	 84	 1	 0.0970198737504	-2.7096045557	 0	 0	 3	 1	 0	 110	 1	 1.1	 0.9;
	 85	 1	 103.758178938	 21.2885713414	 0	 0	 3	 1	 0	 33	 1	 1.1	 0.9;
	 86	 1	 0	 0	 0	 0	 3	 1	 0	 110	 1	 1.1	 0.9;
	 87	 1	 0	 0	 0	 0	 3	 1	 0	 110	 1	 1.1	 0.9;
	 88	 1	 0	 0	 0	 50.2024492878	 3	 1	 0	 132	 1	 1.1	 0.9;
	 89	 1	 30.7275470994	 11.60488975	 0	 0	 3	 1	 0	 11	 1	 1.1	 0.9;
	 90	 1	 0	 0	 0	 0	 3	 1	 0	 110	 1	 1.1	 0.9;
	 91	 1	 0	 0	 0	 0	 3	 1	 0	 110	 1	 1.1	 0.9;
	 92	 1	 12.1454156661	 1.72283460565	 0	 0	 3	 1	 0	 11	 1	 1.1	 0.9;
	 93	 1	 12.3075833534	 6.8651380022	 0	 5.12530251825	 3	 1	 0	 11	 1	 1.1	 0.9;
	 94	 1	 0	 0	 0	 0	 3	 1	 0	 110	 1	 1.1	 0.9;
	 95	 1	 44.9811176768	 15.1020499576	 0	 0	 3	 1	 0	 33	 1	 1.1	 0.9;
	 96	 1	 0	 0	 0	 0	 3	 1	 0	 110	 1	 1.1	 0.9;
	 97	 1	 0.726656483296	 0.716746878948	 0	 0	 3	 1	 0	 132	 1	 1.1	 0.9;
	 98	 1	 9.21318542174	 0.938714229547	 0	 0	 3	 1	 0	 11	 1	 1.1	 0.9;
	 99	 1	 0	 0	 0	 0	 3	 1	 0	 110	 1	 1.1	 0.9;
	 100	 1	 0	 0	 0	 0	 3	 1	 0	 110	 1	 1.1	 0.9;
	 101	 1	 31.9131568963	 6.25424287305	 0	 0	 3	 1	 0	 33	 1	 1.1	 0.9;
	 102	 1	 3.27664489797	 2.27511952511	 0	 0	 3	 1	 0	 33	 1	 1.1	 0.9;
	 103	 1	 0	 0	 0	 0	 3	 1	 0	 110	 1	 1.1	 0.9;
	 104	 1	 16.1554269528	 6.29371096891	 0	 0	 3	 1	 0	 33	 1	 1.1	 0.9;
	 105	 1	 53.7102691889	 10.4472760917	 0	 0	 3	 1	 0	 132	 1	 1.1	 0.9;
	 106	 1	 90.1242680462	 17.6673763437	 0	 19.2916430465	 3	 1	 0	 33	 1	 1.1	 0.9;
	 107	 1	 29.9139131782	 6.97519840424	 0	 0	 3	 1	 0	 132	 1	 1.1	 0.9;
	 108	 1	 45.2016528647	 8.29414974804	 0	 0	 3	 1	 0	 132	 1	 1.1	 0.9;
	 109	 1	 43.4008612532	 7.0293766995	 0	 0	 3	 1	 0	 132	 1	 1.1	 0.9;
	 110	 1	 140.863572948	 13.9231841494	 0	 0	 3	 1	 0	 132	 1	 1.1	 0.9;
	 111	 1	 1.22264030576	-5.95508527811	 0	 0	 3	 1	 0	 132	 1	 1.1	 0.9;
	 112	 1	 64.20135572	 11.1822702251	 0	 0	 3	 1	 0	 132	 1	 1.1	 0.9;
	 113	 1	 39.2348171596	 7.07621844214	 0	 0	 3	 1	 0	 132	 1	 1.1	 0.9;
	 114	 1	 11.7567589722	 3.6255878726	 0	 0	 3	 1	 0	 132	 1	 1.1	 0.9;
	 115	 2	 60.9454535715	 13.5787788653	 0	 0	 3	 1	 0	 21	 1	 1.1	 0.9;
	 116	 1	 0	 0	 0	 0	 3	 1	 0	 110	 1	 1.1	 0.9;
	 117	 1	 19.0952405992	 5.61871198751	 0	 0	 3	 1	 0	 132	 1	 1.1	 0.9;
	 118	 1	 11.1057067198	-17.2150232118	 0	 0	 3	 1	 0	 110	 1	 1.1	 0.9;
	 119	 1	 23.6812198271	 18.7643472341	 0	 13.4997123825	 3	 1	 0	 11	 1	 1.1	 0.9;
	 120	 1	 15.2081863176	 17.7367869458	 0	 14.3086828677	 3	 1	 0	 11	 1	 1.1	 0.9;
	 121	 1	 0	 0	 0	 0	 3	 1	 0	 110	 1	 1.1	 0.9;
	 122	 1	 0	 0	 0	 0	 3	 1	 0	 110	 1	 1.1	 0.9;
	 123	 1	 22.7357010856	 7.66170123201	 0	 0	 3	 1	 0	 11	 1	 1.1	 0.9;
	 124	 1	 25.4447445139	 9.0851846412	 0	 0	 3	 1	 0	 11	 1	 1.1	 0.9;
	 125	 1	 4.05337266749	 4.21855369433	 0	 0	 3	 1	 0	 110	 1	 1.1	 0.9;
	 126	 1	 0	 0	 0	 0	 3	 1	 0	 110	 1	 1.1	 0.9;
	 127	 1	 0	 0	 0	 0	 3	 1	 0	 110	 1	 1.1	 0.9;
	 128	 1	 0	 0	 0	 0	 3	 1	 0	 110	 1	 1.1	 0.9;
	 129	 1	 29.0718991269	 9.19731054137	 0	 0	 3	 1	 0	 33	 1	 1.1	 0.9;
	 130	 1	 0	 0	 0	 101.93692734	 3	 1	 0	 110	 1	 1.1	 0.9;
	 131	 1	 110.536595894	 28.8293995849	 0	 19.9158138337	 3	 1	 0	 33	 1	 1.1	 0.9;
	 132	 1	 0	 0	 0	 0	 3	 1	 0	 110	 1	 1.1	 0.9;
	 133	 1	 74.8234722356	 25.1633395032	 0	 0	 3	 1	 0	 33	 1	 1.1	 0.9;
	 134	 1	 0	 0	 0	 0	 3	 1	 0	 110	 1	 1.1	 0.9;
	 135	 1	 0	 0	 0	 0	 3	 1	 0	 110	 1	 1.1	 0.9;
	 136	 1	 59.5318720024	 11.9365414354	 0	 0	 3	 1	 0	 33	 1	 1.1	 0.9;
	 137	 1	 20.0074444905	 6.4668793429	 0	 0	 3	 1	 0	 11	 1	 1.1	 0.9;
	 138	 1	 22.7624570427	 2.10884922071	 0	 0	 3	 1	 0	 11	 1	 1.1	 0.9;
	 139	 1	 0	 0	 0	 0	 3	 1	 0	 110	 1	 1.1	 0.9;
	 140	 1	 47.8593792936	 9.81929683833	 0	 4.70882906382	 3	 1	 0	 11	 1	 1.1	 0.9;
	 141	 1	 48.3210758652	 10.2199735615	 0	 4.8699781582	 3	 1	 0	 11	 1	 1.1	 0.9;
	 142	 1	 0	 0	 0	 0	 3	 1	 0	 110	 1	 1.1	 0.9;
	 143	 1	 104.109339271	 23.3251854099	 0	 19.9583141338	 3	 1	 0	 33	 1	 1.1	 0.9;
	 144	 1	 0	 0	 0	 0	 3	 1	 0	 110	 1	 1.1	 0.9;
	 145	 1	 56.0804144816	 5.82388020603	 0	 0	 3	 1	 0	 33	 1	 1.1	 0.9;
	 146	 1	 0	 0	 0	 0	 3	 1	 0	 110	 1	 1.1	 0.9;
	 147	 1	 19.0864403051	 5.33194978241	 0	 0	 3	 1	 0	 33	 1	 1.1	 0.9;
	 148	 1	 0	 0	 0	 52.0860902872	 3	 1	 0	 110	 1	 1.1	 0.9;
	 149	 1	 107.941098159	 27.9146146222	 0	 19.6476664898	 3	 1	 0	 33	 1	 1.1	 0.9;
	 150	 1	 97.0423203146	 14.3326567392	 0	 20.1893698109	 3	 1	 0	 33	 1	 1.1	 0.9;
	 151	 1	 9.74856156277	 0.30540359221	 0	 0	 3	 1	 0	 33	 1	 1.1	 0.9;
	 152	 1	 31.545768154	 9.05926745744	 0	 0	 3	 1	 0	 110	 1	 1.1	 0.9;
	 153	 1	 71.8581707492	 30.5613856263	 0	 20.1163927186	 3	 1	 0	 33	 1	 1.1	 0.9;
	 154	 1	 25.8624559361	 7.64724010673	 0	 0	 3	 1	 0	 33	 1	 1.1	 0.9;
	 155	 1	 0	 0	 0	 0	 3	 1	 0	 110	 1	 1.1	 0.9;
	 156	 1	 5.87785617065	 0.21233071371	 0	 0	 3	 1	 0	 110	 1	 1.1	 0.9;
	 157	 1	 22.753646575	 3.29590931689	 0	 0	 3	 1	 0	 11	 1	 1.1	 0.9;
	 158	 1	 35.580936858	 11.6210159024	 0	 9.80826618793	 3	 1	 0	 11	 1	 1.1	 0.9;
	 159	 1	 22.2687546158	 5.71199900061	 0	 0	 3	 1	 0	 11	 1	 1.1	 0.9;
	 160	 1	 16.4351462061	 4.71435627892	 0	 0	 3	 1	 0	 11	 1	 1.1	 0.9;
	 161	 1	 101.423837862	 22.7342805119	 0	 19.5976274175	 3	 1	 0	 33	 1	 1.1	 0.9;
	 162	 1	 0	 0	 0	 0	 3	 1	 0	 11	 1	 1.1	 0.9;
	 163	 1	 31.0252908632	 11.1739188583	 0	 5.01724383258	 3	 1	 0	 11	 1	 1.1	 0.9;
	 164	 1	 0	 0	 0	 0	 3	 1	 0	 110	 1	 1.1	 0.9;
	 165	 1	 36.2357878989	 0.793718510267	 0	 0	 3	 1	 0	 33	 1	 1.1	 0.9;
	 166	 1	 14.4961046356	 2.41740960786	 0	 0	 3	 1	 0	 11	 1	 1.1	 0.9;
	 167	 1	 22.4154214519	-1.4695271447	 0	 0	 3	 1	 0	 11	 1	 1.1	 0.9;
	 168	 1	 0	 0	 0	 0	 3	 1	 0	 110	 1	 1.1	 0.9;
	 169	 1	 17.2509770887	 6.36992486759	 0	 0	 3	 1	 0	 11	 1	 1.1	 0.9;
	 170	 1	 18.0900555288	 6.82603415664	 0	 0	 3	 1	 0	 11	 1	 1.1	 0.9;
	 171	 1	 0	 0	 0	 0	 3	 1	 0	 110	 1	 1.1	 0.9;
	 172	 1	 107.300479373	 25.4182525429	 0	 0	 3	 1	 0	 33	 1	 1.1	 0.9;
	 173	 1	 0	 0	 0	 0	 3	 1	 0	 110	 1	 1.1	 0.9;
	 174	 1	 0	 0	 0	 0	 3	 1	 0	 110	 1	 1.1	 0.9;
	 175	 1	 17.6002837295	 4.76784836505	 0	 0	 3	 1	 0	 11	 1	 1.1	 0.9;
	 176	 1	 16.3833828102	 6.13471313948	 0	 4.82186184012	 3	 1	 0	 11	 1	 1.1	 0.9;
	 177	 1	 17.7324392292	 4.33363734017	 0	 5.02817083839	 3	 1	 0	 11	 1	 1.1	 0.9;
	 178	 1	 0	 0	 0	 0	 3	 1	 0	 110	 1	 1.1	 0.9;
	 179	 1	 67.2083458008	 21.8413372465	 0	 0	 3	 1	 0	 33	 1	 1.1	 0.9;
	 180	 1	 49.6965119466	 10.8719729659	 0	 0	 3	 1	 0	 33	 1	 1.1	 0.9;
	 181	 1	 0	 0	 0	 0	 3	 1	 0	 110	 1	 1.1	 0.9;
	 182	 1	 112.676631414	 30.7547119007	 0	 19.909906987	 3	 1	 0	 33	 1	 1.1	 0.9;
	 183	 1	 0	 0	 0	 0	 3	 1	 0	 110	 1	 1.1	 0.9;
	 184	 1	 14.8427660746	 3.6845196401	 0	 0	 3	 1	 0	 11	 1	 1.1	 0.9;
	 185	 1	 16.3801842965	 4.17685663591	 0	 0	 3	 1	 0	 11	 1	 1.1	 0.9;
	 186	 1	 11.6745972497	 4.07840301825	 0	 0	 3	 1	 0	 11	 1	 1.1	 0.9;
	 187	 1	 31.4660676441	 3.41863613007	 0	 0	 3	 1	 0	 110	 1	 1.1	 0.9;
	 188	 1	 45.7350926703	 29.5748101476	 0	 0	 3	 1	 0	 33	 1	 1.1	 0.9;
	 189	 1	 12.172761701	 2.87107561065	 0	 0	 3	 1	 0	 110	 1	 1.1	 0.9;
	 190	 1	 12.3855966533	 3.65095673603	 0	 48.4592487081	 3	 1	 0	 110	 1	 1.1	 0.9;
	 191	 1	 25.4537800817	 10.0932771249	 0	 4.8959517076	 3	 1	 0	 11	 1	 1.1	 0.9;
	 192	 1	 23.2236697572	 9.61550984017	 0	 5.0315653547	 3	 1	 0	 11	 1	 1.1	 0.9;
	 193	 1	 0	 0	 0	 0	 3	 1	 0	 110	 1	 1.1	 0.9;
	 194	 1	 0	 0	 0	 0	 3	 1	 0	 110	 1	 1.1	 0.9;
	 195	 1	 0	 0	 0	 0	 3	 1	 0	 110	 1	 1.1	 0.9;
	 196	 1	 22.732030197	 6.79666306807	 0	 0	 3	 1	 0	 11	 1	 1.1	 0.9;
	 197	 1	 20.5180767622	 3.99365156092	 0	 0	 3	 1	 0	 11	 1	 1.1	 0.9;
	 198	 2	 14.4568843456	 8.42000324606	 0	 0	 3	 1	 0	 15.75	 1	 1.1	 0.9;
	 199	 2	 12.7361008553	 9.9230242008	 0	 0	 3	 1	 0	 15.75	 1	 1.1	 0.9;
	 200	 2	 11.4064740077	 11.8983676339	 0	 0	 3	 1	 0	 15.75	 1	 1.1	 0.9;
...
];

mpc_regionR1.gen = [
%	bus         Pg          Qg          Qmax        Qmin        Vg          mBase       status      Pmax        Pmin        Pc1         Pc2         Qc1min      Qc1max      Qc2min      Qc2max      ramp_agc    ramp_10     ramp_30     ramp_q      apf         
	 65	 30	 5	 30	-20	 1	 56.4829927751	 1	 60	 0;
	 66	 40	 10	 40	-20	 1	 70.4010887629	 1	 80	 0;
	 67	 30	 15	 50	-20	 1	 55.8495727342	 1	 60	 0;
	 115	 495	 85	 390	-220	 1	 989.914190589	 1	 990	 0;
	 198	 165	 55	 150	-40	 1	 327.941066311	 1	 330	 0;
	 199	 165	 50	 150	-50	 1	 328.221132472	 1	 330	 0;
	 200	 170	 40	 150	-70	 1	 333.526844754	 1	 340	 0;
	 201	 170	 45	 150	-60	 1	 335.174992911	 1	 340	 0;
	 202	 165	 30	 150	-90	 1	 323.952838556	 1	 330	 0;
	 203	 165	 35	 150	-80	 1	 321.767278076	 1	 330	 0;
	 204	 215	 40	 180	-100	 1	 422.53006078	 1	 430	 0;
	 205	 215	 45	 190	-100	 1	 422.440994499	 1	 430	 0;
	 206	 210	 50	 190	-90	 1	 416.575441946	 1	 420	 0;
	 207	 210	 45	 190	-100	 1	 411.612221374	 1	 420	 0;
	 211	 215	 40	 190	-110	 1	 428.869098612	 1	 430	 0;
	 212	 210	 40	 190	-110	 1	 413.432336428	 1	 420	 0;
	 213	 80	 10	 70	-50	 1	 158.354711055	 1	 160	 0;
	 214	 80	 10	 70	-50	 1	 157.839378211	 1	 160	 0;
	 215	 80	 10	 70	-50	 1	 153.609530653	 1	 160	 0;
	 216	 190	 35	 160	-90	 1	 375.605614146	 1	 380	 0;
	 217	 105	 15	 90	-60	 1	 209.356691143	 1	 210	 0;
	 218	 105	 15	 90	-60	 1	 205.18749746	 1	 210	 0;
	 221	 315	 55	 230	-120	 1	 628.052562263	 1	 630	 0;
	 222	 320	 50	 220	-120	 1	 638.170104925	 1	 640	 0;
	 223	 340	 25	 260	-210	 1	 671.132690537	 1	 680	 0;
	 226	 95	 15	 80	-50	 1	 189.740778374	 1	 190	 0;
	 228	 20	 0	 20	-20	 1	 34.7002429671	 1	 40	 0;
	 249	 115	 15	 90	-60	 1	 223.215363414	 1	 230	 0;
	 250	 120	 25	 100	-50	 1	 230.99071327	 1	 240	 0;
	 251	 115	 15	 90	-60	 1	 225.237187796	 1	 230	 0;
	 306	 290	 25	 230	-180	 1	 579.866190145	 1	 580	 0;
	 307	 285	 20	 230	-190	 1	 566.034920721	 1	 570	 0;
	 1	 55	-5	 20	-30	 1	 1.0751540007	 1	 110	 0;
	 260	 55	 130	 370	-110	 1	 1.06145243761	 1	 110	 0;
	 263	 55	 135	 380	-110	 1	 1.08770793499	 1	 110	 0;
	 277	 55	 135	 380	-110	 1	 1.06119855433	 1	 110	 0;
	 278	 55	 110	 280	-60	 1	 1.08374701559	 1	 110	 0;
	 69	 55	 40	 170	-90	 1	 1.07247614581	 1	 110	 0;
];

mpc_regionR1.branch = [
%	fbus        tbus        r           x           b           rateA       rateB       rateC       ratio       angle       status      angmin      angmax      
	 1	 190	 0.0307010836487	 0.0754391853578	 0.00820547738768	 112	 112	 112	 0	 0	 1	-30	 30;
	 1	 190	 0.0314041862964	 0.0814254508491	 0.00776426810988	 115	 115	 115	 0	 0	 1	-30	 30;
	 10	 47	 0.0320799596653	 0.0877715708774	 0.0185260666083	 143	 143	 143	 0	 0	 1	-30	 30;
	 10	 234	 0.0251591423699	 0.0696521658691	 0.0148932232352	 144	 144	 144	 0	 0	 1	-30	 30;
	 11	 74	 0.0146908382038	 0.0413691190414	 0.00878122224034	 145	 145	 145	 0	 0	 1	-30	 30;
	 11	 234	 0.0256246413266	 0.0699541427981	 0.0149493798744	 143	 143	 143	 0	 0	 1	-30	 30;
	 15	 40	 0.154616948266	 0.179921399934	 0.0150454770739	 71	 71	 71	 0	 0	 1	-30	 30;
	 40	 16	 0.189196834276	 0.870011261162	 0.0155777345759	 36	 36	 36	 0.87955	 0	 1	-30	 30;
	 17	 19	 0.00298397709695	 0.0158218872457	 0.00189525116283	 178	 178	 178	 0	 0	 1	-30	 30;
	 17	 127	 0.0372333539637	 0.126846547336	 0.0138695760281	 136	 136	 136	 0	 0	 1	-30	 30;
	 17	 130	 0.0340077373247	 0.115778372644	 0.0117522025039	 136	 136	 136	 0	 0	 1	-30	 30;
	 18	 19	 0.00301615863509	 0.0168938821003	 0.00197913209158	 184	 184	 184	 0	 0	 1	-30	 30;
	 18	 126	 0.0214812286113	 0.0714598954506	 0.00803475649079	 134	 134	 134	 0	 0	 1	-30	 30;
	 18	 130	 0.0348810121804	 0.113230795807	 0.0118923413512	 132	 132	 132	 0	 0	 1	-30	 30;
	 21	 234	 0.017134558214	 0.04431110752	 0.00985790027497	 138	 138	 138	 0	 0	 1	-30	 30;
	 21	 234	 0.0171149233329	 0.0444044061195	 0.0098565365683	 138	 138	 138	 0	 0	 1	-30	 30;
	 21	 297	 0.0556557049644	 0.161367328158	 0.0310149804288	 148	 148	 148	 0	 0	 1	-30	 30;
	 23	 105	 0.0490428774142	 0.0949536527002	 0.0190216238902	 116	 116	 116	 0	 0	 1	-30	 30;
	 23	 105	 0.0489601228953	 0.0900977540709	 0.0200262282196	 112	 112	 112	 0	 0	 1	-30	 30;
	 23	 241	 0.0739436508283	 0.299907156199	 0.0656428185935	 181	 181	 181	 0	 0	 1	-30	 30;
	 23	 242	 0.0689165457601	 0.302239676696	 0.0660904576639	 190	 190	 190	 0	 0	 1	-30	 30;
	 30	 78	 0.0333020005511	 0.0925126892923	 0.0201071131993	 144	 144	 144	 0	 0	 1	-30	 30;
	 30	 78	 0.0341411801634	 0.0919663281576	 0.0197379209699	 142	 142	 142	 0	 0	 1	-30	 30;
	 30	 235	 0.0291442687261	 0.113418114525	 0.0263829864445	 177	 177	 177	 0	 0	 1	-30	 30;
	 30	 235	 0.0311606051651	 0.116421899613	 0.0261291637359	 173	 173	 173	 0	 0	 1	-30	 30;
	 33	 94	 0.0046693188628	 0.015432219003	 0.00161382888589	 134	 134	 134	 0	 0	 1	-30	 30;
	 33	 231	 0.00773632172574	 0.0252576547097	 0.00281197990575	 133	 133	 133	 0	 0	 1	-30	 30;
	 35	 146	 0.0343287961905	 0.0704456488949	 0.0128722299099	 100	 100	 100	 0	 0	 1	-30	 30;
	 35	 40	 0.0310428880742	 0.063481600073	 0.00616755637245	 100	 100	 100	 0	 0	 1	-30	 30;
	 35	 40	 0.0102614711141	 0.0768532604555	 0.013676223583	 219	 219	 219	 0	 0	 1	-30	 30;
	 37	 156	 0.00131426827989	 0.00494387239518	 0.038483826154	 145	 145	 145	 0	 0	 1	-30	 30;
	 37	 246	 0.00462112571876	 0.0200174006427	 0.0701900533888	 157	 157	 157	 0	 0	 1	-30	 30;
	 37	 246	 0.00502578327343	 0.0209574912585	 0.0688513271603	 154	 154	 154	 0	 0	 1	-30	 30;
	 39	 47	 0.0169348626598	 0.0486750814076	 0.0209530834684	 147	 147	 147	 0	 0	 1	-30	 30;
	 39	 238	 0.00874549080383	 0.0292071711569	 0.00674373814537	 161	 161	 161	 0	 0	 1	-30	 30;
	 26	 47	 0.0174182866941	 0.048475677112	 0.0103044195205	 144	 144	 144	 0	 0	 1	-30	 30;
	 26	 238	 0.00902572829529	 0.0290812970527	 0.00680583065354	 158	 158	 158	 0	 0	 1	-30	 30;
	 42	 40	 0.231093188768	 0.253345872223	 0.0233989811938	 69	 69	 69	 0	 0	 1	-30	 30;
	 42	 40	 0.0671464971513	 0.232560491332	 0.0239584794059	 138	 138	 138	 0	 0	 1	-30	 30;
	 44	 297	 0.0284987232697	 0.0714962065976	 0.0162790083479	 136	 136	 136	 0	 0	 1	-30	 30;
	 45	 297	 0.00752954548945	 0.0507722986792	 0.0131970606714	 247	 247	 247	 0	 0	 1	-30	 30;
	 47	 259	 0.0101699612788	 0.0270575707005	 0.00549497365955	 141	 141	 141	 0	 0	 1	-30	 30;
	 49	 190	 0.00694723637498	 0.0406581993313	 0.00488954147429	 189	 189	 189	 0	 0	 1	-30	 30;
	 49	 296	 0.00213555608199	 0.0125557493293	 0.00149444618871	 189	 189	 189	 0	 0	 1	-30	 30;
	 54	 146	 0.0364688971678	 0.0723783069228	 0.0071177559734	 98	 98	 98	 0	 0	 1	-30	 30;
	 54	 229	 0.0476758012537	 0.106456355528	 0.00964604768492	 105	 105	 105	 0	 0	 1	-30	 30;
	 56	 247	 0.00388397842564	 0.0122687908097	 0.00123123505898	 130	 130	 130	 0	 0	 1	-30	 30;
	 56	 253	 0.0051234319935	 0.0174234774691	 0.00173148131383	 136	 136	 136	 0	 0	 1	-30	 30;
	 59	 144	 0.00800011759482	 0.0192489250031	 0.00195785020822	 110	 110	 110	 0	 0	 1	-30	 30;
	 59	 296	 0.00997098565136	 0.0311814187186	 0.00362250146855	 129	 129	 129	 0	 0	 1	-30	 30;
	 59	 296	 0.00953956319954	 0.0315274242139	 0.00350860267715	 134	 134	 134	 0	 0	 1	-30	 30;
	 62	 105	 0.174876536786	 0.336519491634	 0.0700381289665	 116	 116	 116	 0	 0	 1	-30	 30;
	 62	 105	 0.173660026908	 0.328455789303	 0.0709419859305	 114	 114	 114	 0	 0	 1	-30	 30;
	 68	 88	 0.00329611275603	 0.0196801557605	 0.0093672887397	 229	 229	 229	 0	 0	 1	-30	 30;
	 69	 286	 0.000437901498894	 0.00584616782111	 0.176215038203	 778	 778	 778	 0	 0	 1	-30	 30;
	 69	 287	 0.000464982706276	 0.00580320930692	 0.1706832083	 747	 747	 747	 0	 0	 1	-30	 30;
	 69	 294	 0.00356497986308	 0.0427487063524	 0.339810390572	 729	 729	 729	 0	 0	 1	-30	 30;
	 69	 294	 0.00365067232328	 0.0405077205778	 0.3467416618	 696	 696	 696	 0	 0	 1	-30	 30;
	 70	 173	 0.0154497309448	 0.0378987742388	 0.0112331024023	 112	 112	 112	 0	 0	 1	-30	 30;
	 70	 231	 0.0318031882279	 0.0834979055848	 0.00850861072242	 116	 116	 116	 0	 0	 1	-30	 30;
	 70	 244	 0.0084356189114	 0.0409964731975	 0.00718384138791	 169	 169	 169	 0	 0	 1	-30	 30;
	 70	 244	 0.00860146241538	 0.0440220438275	 0.00708598083229	 174	 174	 174	 0	 0	 1	-30	 30;
	 70	 298	 0.0115124167238	 0.0249351343745	 0.00269340382341	 103	 103	 103	 0	 0	 1	-30	 30;
	 71	 40	 0.0104753420555	 0.0388579556905	 0.00548640103664	 143	 143	 143	 0	 0	 1	-30	 30;
	 72	 40	 0.0106332254151	 0.0392132323977	 0.00546760113194	 143	 143	 143	 0	 0	 1	-30	 30;
	 73	 234	 0.0506029377406	 0.134795003412	 0.0322901983791	 141	 141	 141	 0	 0	 1	-30	 30;
	 74	 259	 0.0184663299275	 0.0513526914922	 0.0104323293652	 144	 144	 144	 0	 0	 1	-30	 30;
	 75	 190	 0.0020915321398	 0.0118460626004	 0.00147182805207	 185	 185	 185	 0	 0	 1	-30	 30;
	 75	 296	 0.0072466310928	 0.038806805665	 0.00516711833941	 179	 179	 179	 0	 0	 1	-30	 30;
	 78	 297	 0.0235754390132	 0.0688478770122	 0.0144824740567	 149	 149	 149	 0	 0	 1	-30	 30;
	 78	 297	 0.0257229469473	 0.0686901870782	 0.0144021707288	 141	 141	 141	 0	 0	 1	-30	 30;
	 80	 96	 0.00534404625403	 0.0195403056982	 0.00233181846229	 142	 142	 142	 0	 0	 1	-30	 30;
	 80	 229	 0.00866248625993	 0.018853397158	 0.00171364199371	 104	 104	 104	 0	 0	 1	-30	 30;
	 80	 246	 0.0260730923561	 0.091201977717	 0.0106891798967	 138	 138	 138	 0	 0	 1	-30	 30;
	 80	 253	 0.0130889604053	 0.0445648750436	 0.00462209748067	 136	 136	 136	 0	 0	 1	-30	 30;
	 82	 240	 0.00361935534932	 0.0147336576385	 0.00154827847404	 152	 152	 152	 0	 0	 1	-30	 30;
	 83	 240	 0.00326622899915	 0.0135306362862	 0.00886460504003	 153	 153	 153	 0	 0	 1	-30	 30;
	 84	 240	 0.00320702133229	 0.013115357146	 0.00872405927731	 152	 152	 152	 0	 0	 1	-30	 30;
	 87	 103	 0.00186612343268	 0.0126726799451	 0.00310805404135	 207	 207	 207	 0	 0	 1	-30	 30;
	 87	 86	 0.00180612439733	 0.0125507495494	 0.00300701790498	 210	 210	 210	 0	 0	 1	-30	 30;
	 87	 40	 0.0118715735323	 0.0871736293195	 0.0165419922391	 217	 217	 217	 0	 0	 1	-30	 30;
	 87	 40	 0.0119683957487	 0.0845742329047	 0.0165472685316	 212	 212	 212	 0	 0	 1	-30	 30;
	 87	 295	 0.180782666864	 0.211790606976	 0.0168594842661	 71	 71	 71	 0	 0	 1	-30	 30;
	 87	 295	 0.165569007868	 0.188021388867	 0.0174107009193	 70	 70	 70	 0	 0	 1	-30	 30;
	 88	 68	 0.00365951275091	 0.0217610737286	 0.0101823546279	 229	 229	 229	 0	 0	 1	-30	 30;
	 90	 91	 0.00472828430216	 0.0144703221759	 0.00156765279058	 128	 128	 128	 0	 0	 1	-30	 30;
	 90	 246	 0.0174452436655	 0.0573478937171	 0.00589520877754	 133	 133	 133	 0	 0	 1	-30	 30;
	 90	 247	 0.00739592603715	 0.022883977811	 0.00265992873836	 128	 128	 128	 0	 0	 1	-30	 30;
	 90	 247	 0.00716728169108	 0.0238632371841	 0.00244947665357	 134	 134	 134	 0	 0	 1	-30	 30;
	 90	 293	 0.00756163094155	 0.023725401745	 0.00258789410502	 130	 130	 130	 0	 0	 1	-30	 30;
	 91	 240	 0.00574441872835	 0.0187844075403	 0.00197562194794	 133	 133	 133	 0	 0	 1	-30	 30;
	 94	 231	 0.0123066335228	 0.0381575919957	 0.00432000608907	 129	 129	 129	 0	 0	 1	-30	 30;
	 94	 293	 0.00769369877983	 0.0260271311806	 0.00260147923942	 136	 136	 136	 0	 0	 1	-30	 30;
	 94	 293	 0.00752393924514	 0.025585541352	 0.00267773510919	 136	 136	 136	 0	 0	 1	-30	 30;
	 96	 253	 0.00897315215277	 0.0352375264324	 0.0244780413247	 148	 148	 148	 0	 0	 1	-30	 30;
	 99	 171	 0.000852264523054	 0.00597537362103	 0.0528853594931	 211	 211	 211	 0	 0	 1	-30	 30;
	 100	 171	 0.000788421148764	 0.00583516034608	 0.0547091453337	 218	 218	 218	 0	 0	 1	-30	 30;
	 295	 228	 0.0241114239569	 0.410610571754	 0.0012109399457	 77	 77	 77	 1.01493	 0	 1	-30	 30;
	 105	 107	 0.00187240935444	 0.0134380348443	 0.00342427221406	 256	 256	 256	 0	 0	 1	-30	 30;
	 105	 107	 0.00182140412243	 0.0139894591495	 0.00358674606525	 267	 267	 267	 0	 0	 1	-30	 30;
	 107	 108	 0.00706519117034	 0.0342972040827	 0.00778618607064	 202	 202	 202	 0	 0	 1	-30	 30;
	 107	 108	 0.00696348425579	 0.0324795813814	 0.00760851960687	 198	 198	 198	 0	 0	 1	-30	 30;
	 108	 109	 0.0137360987399	 0.0371978157968	 0.00825047121652	 142	 142	 142	 0	 0	 1	-30	 30;
	 108	 109	 0.013416487065	 0.0357971188092	 0.00809866668841	 141	 141	 141	 0	 0	 1	-30	 30;
	 110	 255	 0.00155496444901	 0.0117758626429	 0.00279523323704	 265	 265	 265	 0	 0	 1	-30	 30;
	 110	 255	 0.00149256292949	 0.0118612019163	 0.0027023126262	 273	 273	 273	 0	 0	 1	-30	 30;
	 111	 68	 0.00273651692365	 0.0102530266361	 0.00258665306735	 173	 173	 173	 0	 0	 1	-30	 30;
	 111	 68	 0.00278073009354	 0.0101553825884	 0.00250428048855	 170	 170	 170	 0	 0	 1	-30	 30;
	 112	 292	 0.00838136809313	 0.0222166905696	 0.00465486902129	 140	 140	 140	 0	 0	 1	-30	 30;
	 112	 292	 0.00845063594624	 0.0226842452206	 0.00477079535999	 141	 141	 141	 0	 0	 1	-30	 30;
	 113	 292	 0.00874356081772	 0.0422343391069	 0.00967877977108	 202	 202	 202	 0	 0	 1	-30	 30;
	 113	 292	 0.00864404304426	 0.0446366684933	 0.0100787685494	 210	 210	 210	 0	 0	 1	-30	 30;
	 114	 257	 0.0108436012678	 0.056052645277	 0.0132238201326	 210	 210	 210	 0	 0	 1	-30	 30;
	 114	 257	 0.0112990885191	 0.0567519920324	 0.012376855933	 207	 207	 207	 0	 0	 1	-30	 30;
	 116	 296	 0.00387834500559	 0.0123834663893	 0.00130651748739	 131	 131	 131	 0	 0	 1	-30	 30;
	 117	 292	 0.0139510076766	 0.0993711860345	 0.0385851534863	 255	 255	 255	 0	 0	 1	-30	 30;
	 117	 292	 0.0138332906793	 0.103436937628	 0.0387121094838	 263	 263	 263	 0	 0	 1	-30	 30;
	 121	 183	 0.00135080414422	 0.00265558096706	 0.0446127081519	 98	 98	 98	 0	 0	 1	-30	 30;
	 121	 220	 0.00309198158504	 0.00584076423075	 0.082246840567	 95	 95	 95	 0	 0	 1	-30	 30;
	 122	 183	 0.00124961321217	 0.00257881191067	 0.0466449161438	 101	 101	 101	 0	 0	 1	-30	 30;
	 122	 220	 0.00315586478181	 0.0055236270576	 0.0853124285722	 91	 91	 91	 0	 0	 1	-30	 30;
	 125	 130	 0.00291564426626	 0.0134233491739	 0.00290595358125	 163	 163	 163	 0	 0	 1	-30	 30;
	 126	 129	 0.00923019189851	 0.167742166835	 0.000676343011029	 189	 189	 189	 0.9875	 0	 1	-30	 30;
	 126	 238	 0.0205950030329	 0.13913957905	 0.00641584551491	 225	 225	 225	 1	 0	 1	-30	 30;
	 127	 128	 0.00299211283052	 0.0162817652824	 0.00200385975936	 181	 181	 181	 0	 0	 1	-30	 30;
	 132	 244	 0.0134275874616	 0.0316332498853	 0.00804085184372	 109	 109	 109	 0	 0	 1	-30	 30;
	 134	 190	 0.0031023658745	 0.0114999903577	 0.00162962965309	 143	 143	 143	 0	 0	 1	-30	 30;
	 135	 190	 0.00320542483782	 0.0116482909305	 0.00161721447399	 142	 142	 142	 0	 0	 1	-30	 30;
	 118	 195	 0.000418922695591	 0.00307260358152	 0.0272004715925	 217	 217	 217	 0	 0	 1	-30	 30;
	 139	 156	 0.000722807437251	 0.00116482084556	 0.0207519428341	 87	 87	 87	 0	 0	 1	-30	 30;
	 139	 156	 0.000681857733261	 0.00118966738103	 0.0203382889634	 91	 91	 91	 0	 0	 1	-30	 30;
	 142	 231	 0.00837969562607	 0.0408139811151	 0.00505538935595	 169	 169	 169	 0	 0	 1	-30	 30;
	 144	 298	 0.0109650978827	 0.0256683708751	 0.00256769565925	 108	 108	 108	 0	 0	 1	-30	 30;
	 130	 150	 0.0239983820225	 0.233620975672	 0.00620014590548	 135	 135	 135	 1.1368	 0	 1	-30	 30;
	 152	 150	 0.0152512543051	 0.216665230576	 0.00681348965181	 146	 146	 146	 1.0912	 0	 1	-30	 30;
	 152	 130	 0.00384565355412	 0.0272967416109	 0.00389332666235	 212	 212	 212	 0	 0	 1	-30	 30;
	 152	 130	 0.00385577775579	 0.0264210917097	 0.00409267720311	 208	 208	 208	 0	 0	 1	-30	 30;
	 155	 148	 0.00296142432045	 0.0155706272447	 0.00181619692082	 177	 177	 177	 0	 0	 1	-30	 30;
	 155	 148	 0.00279284854718	 0.0156570881035	 0.0017815504113	 184	 184	 184	 0	 0	 1	-30	 30;
	 164	 171	 0.00318658481985	 0.00556729399886	 0.0831517347184	 91	 91	 91	 0	 0	 1	-30	 30;
	 118	 187	 0.00110076201486	 0.00343371945921	 0.0670980745134	 129	 129	 129	 0	 0	 1	-30	 30;
	 118	 187	 0.00108140076528	 0.00347279700391	 0.0678775516516	 131	 131	 131	 0	 0	 1	-30	 30;
	 118	 148	 0.00500532016048	 0.0283893564986	 0.00391648426388	 185	 185	 185	 0	 0	 1	-30	 30;
	 118	 148	 0.00482014427857	 0.0292290176801	 0.003634173629	 193	 193	 193	 0	 0	 1	-30	 30;
	 168	 244	 0.00955946752703	 0.0192222994044	 0.0026079313694	 99	 99	 99	 0	 0	 1	-30	 30;
	 171	 130	 0.00775480396462	 0.0444271949957	 0.024594790987	 187	 187	 187	 0	 0	 1	-30	 30;
	 171	 130	 0.00837360919993	 0.0483360301062	 0.0265651927965	 187	 187	 187	 0	 0	 1	-30	 30;
	 174	 296	 0.00358405595122	 0.0122879642078	 0.0012778834881	 137	 137	 137	 0	 0	 1	-30	 30;
	 178	 253	 0.00407760406397	 0.0131378306611	 0.00140349908256	 132	 132	 132	 0	 0	 1	-30	 30;
	 253	 179	 0.0146697226508	 0.195324009983	 0.00195007658756	 162	 162	 162	 0.975	 0	 1	-30	 30;
	 125	 130	 0.00505195568455	 0.0203384374675	 0.00482977995882	 151	 151	 151	 0	 0	 1	-30	 30;
	 181	 230	 0.0112000774903	 0.0280486371948	 0.0513580192742	 113	 113	 113	 0	 0	 1	-30	 30;
	 181	 230	 0.0112107792569	 0.0281945209094	 0.0503453649553	 113	 113	 113	 0	 0	 1	-30	 30;
	 189	 190	 0.00073816425673	 0.00298109982808	 0.0200158009015	 151	 151	 151	 0	 0	 1	-30	 30;
	 139	 240	 0.00827398964614	 0.0222902295123	 0.0478132741486	 118	 118	 118	 0	 0	 1	-30	 30;
	 193	 195	 0.00139085979886	 0.00955151573615	 0.06060806407	 208	 208	 208	 0	 0	 1	-30	 30;
	 193	 231	 0.00176063713586	 0.0127142978302	 0.00255856091916	 215	 215	 215	 0	 0	 1	-30	 30;
	 193	 148	 0.00200529466811	 0.0126975641414	 0.00426939374391	 198	 198	 198	 0	 0	 1	-30	 30;
	 194	 195	 0.00151310602266	 0.00944595005824	 0.0612352192434	 196	 196	 196	 0	 0	 1	-30	 30;
	 194	 231	 0.00183332353188	 0.0132072159878	 0.00252155722142	 214	 214	 214	 0	 0	 1	-30	 30;
	 194	 148	 0.00186639527933	 0.0122305105685	 0.00440620117369	 202	 202	 202	 0	 0	 1	-30	 30;
	 220	 190	 0.00598243729479	 0.0255326521989	 0.0461226692361	 156	 156	 156	 0	 0	 1	-30	 30;
	 220	 190	 0.00569777335721	 0.0259769492539	 0.0485862161726	 162	 162	 162	 0	 0	 1	-30	 30;
	 230	 246	 0.0129948130372	 0.041988090584	 0.00418855111362	 132	 132	 132	 0	 0	 1	-30	 30;
	 230	 246	 0.0129840156599	 0.041684885772	 0.0042372407587	 131	 131	 131	 0	 0	 1	-30	 30;
	 231	 148	 0.0141569815417	 0.049486145839	 0.00690475685359	 138	 138	 138	 0	 0	 1	-30	 30;
	 231	 244	 0.0110489242055	 0.0607311781228	 0.00713812795781	 182	 182	 182	 0	 0	 1	-30	 30;
	 231	 244	 0.0114655143224	 0.0610321395798	 0.00697779943114	 178	 178	 178	 0	 0	 1	-30	 30;
	 235	 97	 0.0715284917879	 0.129912781575	 0.0260941638465	 112	 112	 112	 0	 0	 1	-30	 30;
	 236	 68	 0.0059550135376	 0.0348431444849	 0.016124314316	 227	 227	 227	 0	 0	 1	-30	 30;
	 236	 68	 0.00635840393567	 0.0340460598672	 0.0160387724411	 215	 215	 215	 0	 0	 1	-30	 30;
	 237	 238	 0.00641491224279	 0.0329604994262	 0.00777617924169	 209	 209	 209	 0	 0	 1	-30	 30;
	 237	 238	 0.00620317575292	 0.0318793857184	 0.00756324122776	 209	 209	 209	 0	 0	 1	-30	 30;
	 239	 271	 0.00760700957389	 0.0574035378511	 0.240926503727	 550	 550	 550	 0	 0	 1	-30	 30;
	 239	 277	 0.00329405724455	 0.0421722609037	 0.325794482831	 759	 759	 759	 0	 0	 1	-30	 30;
	 239	 277	 0.00329350161765	 0.0409151824874	 0.296224580301	 745	 745	 745	 0	 0	 1	-30	 30;
	 240	 293	 0.0123849741658	 0.0398252432401	 0.00440012812439	 131	 131	 131	 0	 0	 1	-30	 30;
	 247	 253	 0.00938148335293	 0.0286833123351	 0.00325185496139	 128	 128	 128	 0	 0	 1	-30	 30;
	 252	 297	 0.00809367243849	 0.0543201239748	 0.0132300376083	 246	 246	 246	 0	 0	 1	-30	 30;
	 252	 297	 0.00750436462839	 0.0498722189864	 0.0131302638171	 245	 245	 245	 0	 0	 1	-30	 30;
	 256	 257	 0.00564132498136	 0.0443928282067	 0.0161298413419	 271	 271	 271	 0	 0	 1	-30	 30;
	 256	 257	 0.00554356850761	 0.0460603641748	 0.0163316872777	 280	 280	 280	 0	 0	 1	-30	 30;
	 260	 263	 0.00942714054857	 0.0679610550371	 0.41620858077	 535	 535	 535	 0	 0	 1	-30	 30;
	 260	 267	 0.00496288395695	 0.0330410566848	 0.212209434675	 510	 510	 510	 0	 0	 1	-30	 30;
	 260	 268	 0.00134433806411	 0.0152301517576	 0.106109881692	 704	 704	 704	 0	 0	 1	-30	 30;
	 260	 270	 0.00316950904452	 0.0199649252231	 0.158238184144	 493	 493	 493	 0	 0	 1	-30	 30;
	 260	 271	 0.00493408429183	 0.0538574293031	 0.367898747351	 689	 689	 689	 0	 0	 1	-30	 30;
	 260	 278	 0.00200551770423	 0.0140994923063	 0.0998000773578	 527	 527	 527	 0	 0	 1	-30	 30;
	 261	 272	 0.000602872455334	 0.00461751565561	 0.0319833171072	 555	 555	 555	 0	 0	 1	-30	 30;
	 261	 148	 0.00149017853162	 0.0568898344081	 0.0333906182718	 556	 556	 556	 1.01363336881	 0	 1	-30	 30;
	 261	 273	 0.00122109422983	 0.00858398980187	 0.0639805182177	 527	 527	 527	 0	 0	 1	-30	 30;
	 261	 277	 0.00190737411228	 0.0145575620408	 0.109218915774	 554	 554	 554	 0	 0	 1	-30	 30;
	 261	 278	 0.00277746277559	 0.0203866171879	 0.140644554708	 541	 541	 541	 0	 0	 1	-30	 30;
	 261	 279	 0.00207230641308	 0.01330956076	 0.0961247722299	 499	 499	 499	 0	 0	 1	-30	 30;
	 262	 277	 0.00403965944971	 0.0337646226267	 0.142880803511	 586	 586	 586	 0	 0	 1	-30	 30;
	 262	 277	 0.00411782706192	 0.0335915492909	 0.13679644552	 577	 577	 577	 0	 0	 1	-30	 30;
	 263	 264	 0.00878038959552	 0.0648785226281	 0.420557009749	 543	 543	 543	 0	 0	 1	-30	 30;
	 263	 264	 0.00943062125675	 0.0627073703492	 0.428891784835	 510	 510	 510	 0	 0	 1	-30	 30;
	 263	 267	 0.00607600373457	 0.0400336689687	 0.275808192834	 507	 507	 507	 0	 0	 1	-30	 30;
	 263	 283	 0.00286953681027	 0.0194680711096	 0.129727071021	 516	 516	 516	 0	 0	 1	-30	 30;
...
];

mpc_regionR1.gencost = [
%	2           startup     shutdown    n           c(n-1)...c0 
	 2	 62.5	 0	 3	 0	 10.081279	 0;
	 2	 0	 0	 3	 0	 0.001	 0;
	 2	 62.5	 0	 3	 0	 10.081279	 0;
	 2	 350	 0	 3	 0	 7.164384	 0;
	 2	 350	 0	 3	 0	 7.164384	 0;
	 2	 350	 0	 3	 0	 7.164384	 0;
	 2	 0	 0	 3	 0	 0.001	 0;
	 2	 0	 0	 3	 0	 0.001	 0;
	 2	 350	 0	 3	 0	 7.164384	 0;
	 2	 350	 0	 3	 0	 7.164384	 0;
	 2	 350	 0	 3	 0	 7.164384	 0;
	 2	 350	 0	 3	 0	 7.164384	 0;
	 2	 350	 0	 3	 0	 7.164384	 0;
	 2	 62.5	 0	 3	 0	 10.081279	 0;
	 2	 62.5	 0	 3	 0	 10.081279	 0;
	 2	 62.5	 0	 3	 0	 10.081279	 0;
	 2	 62.5	 0	 3	 0	 10.081279	 0;
	 2	 62.5	 0	 3	 0	 10.081279	 0;
	 2	 62.5	 0	 3	 0	 10.081279	 0;
	 2	 350	 0	 3	 0	 7.164384	 0;
	 2	 62.5	 0	 3	 0	 10.081279	 0;
	 2	 62.5	 0	 3	 0	 10.081279	 0;
	 2	 350	 0	 3	 0	 7.164384	 0;
	 2	 350	 0	 3	 0	 7.164384	 0;
	 2	 350	 0	 3	 0	 7.164384	 0;
	 2	 350	 0	 3	 0	 7.164384	 0;
	 2	 62.5	 0	 3	 0	 10.081279	 0;
	 2	 62.5	 0	 3	 0	 10.081279	 0;
	 2	 62.5	 0	 3	 0	 10.081279	 0;
	 2	 62.5	 0	 3	 0	 10.081279	 0;
	 2	 350	 0	 3	 0	 7.164384	 0;
	 2	 350	 0	 3	 0	 7.164384	 0;
	 2	 0	 0	 3	 0	 0.001	 0;
	 2	 0	 0	 3	 0	 0.001	 0;
	 2	 0	 0	 3	 0	 0.001	 0;
	 2	 0	 0	 3	 0	 0.001	 0;
	 2	 0	 0	 3	 0	 0.001	 0;
	 2	 0	 0	 3	 0	 0.001	 0;
];


% -------------------- mpc_regionR2 --------------------

mpc_regionR2.version = '2';
mpc_regionR2.baseMVA = 100.0000;
mpc_regionR2.bus = [
%	bus_i       type        Pd          Qd          Gs          Bs          area        Vm          Va          baseKV      zone        Vmax        Vmin        
	 1	 1	 0.260013003669	-3.32390357282	 0	-8.58306984238	 3	 1	 0	 132	 1	 1.1	 0.9;
	 2	 1	 0	 0	 0	-10.5808031295	 3	 1	 0	 132	 1	 1.1	 0.9;
	 3	 1	 0	 0	 0	-5.4663853176	 3	 1	 0	 132	 1	 1.1	 0.9;
	 4	 1	 0	 0	 0	 0	 3	 1	 0	 33	 1	 1.1	 0.9;
	 5	 1	 9.73569056402	 2.35004319135	 0	 0	 3	 1	 0	 66	 1	 1.1	 0.9;
	 6	 1	 4.62348153453	 7.25765923179	 0	 0	 3	 1	 0	 66	 1	 1.1	 0.9;
	 7	 1	 8.78093417865	-5.29983236208	 0	 0	 3	 1	 0	 66	 1	 1.1	 0.9;
	 8	 1	 24.9157356171	 11.467470582	 0	 0	 3	 1	 0	 132	 1	 1.1	 0.9;
	 9	 1	 3.12755978041	-0.457766438181	 0	 0	 3	 1	 0	 132	 1	 1.1	 0.9;
	 10	 1	 0	 0	 0	 0	 3	 1	 0	 11.8	 1	 1.1	 0.9;
	 11	 1	 0	 0	 0	 0	 3	 1	 0	 11.8	 1	 1.1	 0.9;
	 12	 1	 0	 0	 0	 0	 3	 1	 0	 11.8	 1	 1.1	 0.9;
	 13	 1	 0	 0	 0	 0	 3	 1	 0	 11.8	 1	 1.1	 0.9;
	 14	 1	 0	 0	 0	 0	 3	 1	 0	 132	 1	 1.1	 0.9;
	 15	 1	 62.2185274908	 22.9226375778	 0	 0	 3	 1	 0	 66	 1	 1.1	 0.9;
	 16	 1	 0	 0	 0	 0	 3	 1	 0	 132	 1	 1.1	 0.9;
	 17	 1	 0	 0	 0	 0	 3	 1	 0	 132	 1	 1.1	 0.9;
	 18	 1	 17.7377452821	-0.812032260565	 0	 0	 3	 1	 0	 66	 1	 1.1	 0.9;
	 19	 1	 0	 0	 0	 20.3585719578	 3	 1	 0	 132	 1	 1.1	 0.9;
	 20	 1	 47.7676601508	 9.02384231187	 0	 0	 3	 1	 0	 66	 1	 1.1	 0.9;
	 21	 1	 0	 0	 0	 0	 3	 1	 0	 132	 1	 1.1	 0.9;
	 22	 1	 61.5488392406	 4.59941439625	 0	 0	 3	 1	 0	 66	 1	 1.1	 0.9;
	 23	 1	 2.36494018229	-0.29877703062	 0	 0	 3	 1	 0	 66	 1	 1.1	 0.9;
	 24	 1	 30.3110472897	 8.82338720456	 0	 0	 3	 1	 0	 66	 1	 1.1	 0.9;
	 25	 1	 0	 0	 0	 0	 3	 1	 0	 132	 1	 1.1	 0.9;
	 26	 1	 0	 0	 0	 0	 3	 1	 0	 132	 1	 1.1	 0.9;
	 27	 1	 0	 0	 0	 0	 3	 1	 0	 132	 1	 1.1	 0.9;
	 28	 1	 67.4622559882	 15.4511661567	 0	 15.7340733903	 3	 1	 0	 33	 1	 1.1	 0.9;
	 29	 1	 30.9270289011	 8.5221991741	 0	 0	 3	 1	 0	 66	 1	 1.1	 0.9;
	 30	 1	 25.9052601329	 8.45952076369	 0	 19.8538509046	 3	 1	 0	 66	 1	 1.1	 0.9;
	 31	 1	 0	 0	 0	 0	 3	 1	 0	 132	 1	 1.1	 0.9;
	 32	 1	 0	 0	 0	 0	 3	 1	 0	 132	 1	 1.1	 0.9;
	 33	 1	 0	 0	 0	 0	 3	 1	 0	 132	 1	 1.1	 0.9;
	 34	 1	 9.52635726158	 2.61052074569	 0	 0	 3	 1	 0	 22	 1	 1.1	 0.9;
	 35	 1	 0.0051591228086	 0	 0	 0	 3	 1	 0	 22	 1	 1.1	 0.9;
	 36	 1	 0	 0	 0	 0	 3	 1	 0	 132	 1	 1.1	 0.9;
	 37	 1	 21.2390310211	 5.22193309465	 0	 0	 3	 1	 0	 22	 1	 1.1	 0.9;
	 38	 1	 45.6369155926	 14.1481724897	 0	 6.97874884307	 3	 1	 0	 22	 1	 1.1	 0.9;
	 39	 1	 0	 0	 0	 0	 3	 1	 0	 132	 1	 1.1	 0.9;
	 40	 1	 0	 0	 0	 0	 3	 1	 0	 132	 1	 1.1	 0.9;
	 41	 1	 17.7090680725	-1.90282824246	 0	 0	 3	 1	 0	 22	 1	 1.1	 0.9;
	 42	 1	 18.5490448002	-1.98049598164	 0	 0	 3	 1	 0	 22	 1	 1.1	 0.9;
	 43	 1	 0	 0	 0	 0	 3	 1	 0	 132	 1	 1.1	 0.9;
	 44	 1	 51.3048517856	 0.92971101621	 0	 0	 3	 1	 0	 66	 1	 1.1	 0.9;
	 45	 1	 0	 0	 0	 51.7095351499	 3	 1	 0	 132	 1	 1.1	 0.9;
	 46	 1	 0	 0	 0	 0	 3	 1	 0	 132	 1	 1.1	 0.9;
	 47	 1	 22.5466758787	-1.3458800726	 0	 0	 3	 1	 0	 66	 1	 1.1	 0.9;
	 48	 2	 0	 0	 0	 0	 3	 1	 0	 132	 1	 1.1	 0.9;
	 49	 1	 18.3283448005	 0.650674314169	 0	 0	 3	 1	 0	 33	 1	 1.1	 0.9;
	 50	 1	 0	 0	 0	 0	 3	 1	 0	 132	 1	 1.1	 0.9;
	 51	 1	 7.18164644685	 1.67467921327	 0	 0	 3	 1	 0	 66	 1	 1.1	 0.9;
	 52	 1	 6.28703131878	 3.13470448094	 0	 0	 3	 1	 0	 66	 1	 1.1	 0.9;
	 53	 1	 0	 0	 0	 0	 3	 1	 0	 132	 1	 1.1	 0.9;
	 54	 1	 24.8067275093	-0.598445165238	 0	 0	 3	 1	 0	 66	 1	 1.1	 0.9;
	 55	 1	 0	 0	 0	 0	 3	 1	 0	 132	 1	 1.1	 0.9;
	 56	 1	 12.286172027	 0.298495941647	 0	 0	 3	 1	 0	 66	 1	 1.1	 0.9;
	 57	 1	 0	 0	 0	 0	 3	 1	 0	 132	 1	 1.1	 0.9;
	 58	 1	-4.56934893495	 5.90682030333	 0	 0	 3	 1	 0	 66	 1	 1.1	 0.9;
	 59	 1	 1.35901597845	 0.435790841106	 0	 0	 3	 1	 0	 132	 1	 1.1	 0.9;
	 60	 1	 0	 0	 0	 0	 3	 1	 0	 132	 1	 1.1	 0.9;
	 61	 1	 0	 0	 0	 0	 3	 1	 0	 132	 1	 1.1	 0.9;
	 62	 1	 35.1376697997	 1.84205557357	 0	 0	 3	 1	 0	 66	 1	 1.1	 0.9;
	 63	 1	 0	 0	 0	 0	 3	 1	 0	 132	 1	 1.1	 0.9;
	 64	 1	 0	 0	 0	 0	 3	 1	 0	 132	 1	 1.1	 0.9;
	 65	 1	 29.7955062083	 8.59285198679	 0	 0	 3	 1	 0	 22	 1	 1.1	 0.9;
	 66	 1	 0	 0	 0	 0	 3	 1	 0	 66	 1	 1.1	 0.9;
	 67	 1	 0	 0	 0	 0	 3	 1	 0	 132	 1	 1.1	 0.9;
	 68	 1	 1.35133675814	-14.8448620234	 0	 6.23699988044	 3	 1	 0	 132	 1	 1.1	 0.9;
	 69	 1	 0	 0	 0	 8.93898121545	 3	 1	 0	 132	 1	 1.1	 0.9;
	 70	 1	 0	 0	 0	 0	 3	 1	 0	 132	 1	 1.1	 0.9;
	 71	 1	 1.34802927458	-7.41469687042	 0	 2.58649034071	 3	 1	 0	 132	 1	 1.1	 0.9;
	 72	 1	 0	 0	 0	 0	 3	 1	 0	 132	 1	 1.1	 0.9;
	 73	 1	 1.92557989855	-22.2036197192	 0	 1.74747080751	 3	 1	 0	 132	 1	 1.1	 0.9;
	 74	 1	 2.78350718015	-14.3863541385	 0	 0	 3	 1	 0	 132	 1	 1.1	 0.9;
	 75	 1	 0	 0	 0	 0	 3	 1	 0	 132	 1	 1.1	 0.9;
	 76	 1	 9.34347460675	-12.0552097677	 0	-3.70059416449	 3	 1	 0	 132	 1	 1.1	 0.9;
	 77	 1	 0	 0	 0	 0	 3	 1	 0	 132	 1	 1.1	 0.9;
	 78	 1	 2.53427529298	-18.7195328405	 0	 0	 3	 1	 0	 132	 1	 1.1	 0.9;
	 79	 1	 0	 0	 0	 0	 3	 1	 0	 132	 1	 1.1	 0.9;
	 80	 1	 1.55329766587	-15.6936537576	 0	 0	 3	 1	 0	 132	 1	 1.1	 0.9;
	 81	 1	 0.0951937989192	-6.81404037035	 0	-0.800206869202	 3	 1	 0	 132	 1	 1.1	 0.9;
	 82	 1	 0	 0	 0	 20.174160786	 3	 1	 0	 132	 1	 1.1	 0.9;
	 83	 1	 33.6587368571	 11.6368867743	 0	 0	 3	 1	 0	 66	 1	 1.1	 0.9;
	 84	 1	 0	 0	 0	 0	 3	 1	 0	 132	 1	 1.1	 0.9;
	 85	 1	 23.9166722362	 0.453496168584	 0	 0	 3	 1	 0	 22	 1	 1.1	 0.9;
	 86	 1	 0	 0	 0	 0	 3	 1	 0	 132	 1	 1.1	 0.9;
	 87	 1	 34.9562463222	 8.25452116908	 0	 0	 3	 1	 0	 66	 1	 1.1	 0.9;
	 88	 1	 0	 0	 0	 0	 3	 1	 0	 132	 1	 1.1	 0.9;
	 89	 1	 0	 0	 0	 0	 3	 1	 0	 132	 1	 1.1	 0.9;
	 90	 1	 2.28789075902	 0.45874549904	 0	 0	 3	 1	 0	 22	 1	 1.1	 0.9;
	 91	 1	 6.6942436917	 8.0590280456	 0	 0	 3	 1	 0	 132	 1	 1.1	 0.9;
	 92	 1	 0	 0	 0	 0	 3	 1	 0	 132	 1	 1.1	 0.9;
	 93	 1	 0	 0	 0	 0	 3	 1	 0	 132	 1	 1.1	 0.9;
	 94	 1	 0	 0	 0	 0	 3	 1	 0	 22	 1	 1.1	 0.9;
	 95	 1	 0	 0	 0	 0	 3	 1	 0	 132	 1	 1.1	 0.9;
	 96	 1	 0	 0	 0	 0	 3	 1	 0	 132	 1	 1.1	 0.9;
	 97	 1	 66.0952625849	 10.59970777	 0	 0	 3	 1	 0	 33	 1	 1.1	 0.9;
	 98	 1	 0	 0	 0	 0	 3	 1	 0	 132	 1	 1.1	 0.9;
	 99	 2	 42.7906100554	-0.0669826761636	 0	 0	 3	 1	 0	 66	 1	 1.1	 0.9;
	 100	 1	 0	 0	 0	 0	 3	 1	 0	 132	 1	 1.1	 0.9;
	 101	 1	 0.102551670945	-0.527247212076	 0	 0	 3	 1	 0	 132	 1	 1.1	 0.9;
	 102	 1	 18.5244561106	 6.64669786077	 0	 0	 3	 1	 0	 11	 1	 1.1	 0.9;
	 103	 1	 0	 0	 0	 0	 3	 1	 0	 132	 1	 1.1	 0.9;
	 104	 1	 0	 0	 0	 0	 3	 1	 0	 132	 1	 1.1	 0.9;
	 105	 1	 0	 0	 0	 0	 3	 1	 0	 132	 1	 1.1	 0.9;
	 106	 1	 0.103413162227	 0.87964760822	 0	 0	 3	 1	 0	 66	 1	 1.1	 0.9;
	 107	 1	 1.72179330441	-5.24911324217	 0	 0	 3	 1	 0	 132	 1	 1.1	 0.9;
	 108	 1	 9.95151141102	 1.46882421437	 0	 0	 3	 1	 0	 132	 1	 1.1	 0.9;
	 109	 1	 3.25400810175	-1.03185357798	 0	 0	 3	 1	 0	 132	 1	 1.1	 0.9;
	 110	 1	 6.80520660249	-18.9307480611	 0	 0	 3	 1	 0	 132	 1	 1.1	 0.9;
	 111	 1	 18.9041578623	-12.0779948416	 0	 0	 3	 1	 0	 132	 1	 1.1	 0.9;
	 112	 1	 0	 0	 0	 0	 3	 1	 0	 132	 1	 1.1	 0.9;
	 113	 1	 0.0950277280062	-1.7488254135	 0	 0	 3	 1	 0	 132	 1	 1.1	 0.9;
	 114	 1	 0.201037628297	 2.84710737312	 0	 0	 3	 1	 0	 132	 1	 1.1	 0.9;
	 115	 1	 6.66833033374	 0.826876887235	 0	 0	 3	 1	 0	 132	 1	 1.1	 0.9;
	 116	 1	 1.88305620952	-7.53246026804	 0	 0	 3	 1	 0	 132	 1	 1.1	 0.9;
	 117	 1	 0	 0	 0	 19.5721361572	 3	 1	 0	 132	 1	 1.1	 0.9;
	 118	 1	 39.0999492976	 34.8980633722	 0	 0	 3	 1	 0	 66	 1	 1.1	 0.9;
	 119	 1	 20.3967580805	 9.35078423142	 0	 0	 3	 1	 0	 132	 1	 1.1	 0.9;
	 120	 1	 77.2411993972	 16.3047974602	 0	 0	 3	 1	 0	 132	 1	 1.1	 0.9;
	 121	 2	 0.682281481851	 0	 0	 0	 3	 1	 0	 15	 1	 1.1	 0.9;
	 122	 1	 29.0899719892	 4.04375306207	 0	 0	 3	 1	 0	 66	 1	 1.1	 0.9;
	 123	 1	 11.3053602994	 3.54950763737	 0	 0	 3	 1	 0	 66	 1	 1.1	 0.9;
	 124	 2	 0.0966405550065	-17.0233461857	 0	 0	 3	 1	 0	 132	 1	 1.1	 0.9;
	 125	 2	 0.103330181963	-3.28516723377	 0	 0	 3	 1	 0	 132	 1	 1.1	 0.9;
	 126	 1	 0	 0	 0	 0	 3	 1	 0	 132	 1	 1.1	 0.9;
	 127	 2	 0.10394214028	 9.26709345893	 0	 0	 3	 1	 0	 132	 1	 1.1	 0.9;
	 128	 1	 29.9439579345	 8.03079409989	 0	 0	 3	 1	 0	 66	 1	 1.1	 0.9;
	 129	 1	 0.0994177526841	 0.205582980807	 0	 0	 3	 1	 0	 132	 1	 1.1	 0.9;
	 130	 1	 8.50773922661	 0.292446078458	 0	 0	 3	 1	 0	 66	 1	 1.1	 0.9;
	 131	 2	 17.0177365043	-21.2230966947	 0	 0	 3	 1	 0	 132	 1	 1.1	 0.9;
	 132	 1	-19.4134494968	 0	 0	-6.94250944865	 3	 1	 0	 22	 1	 1.1	 0.9;
	 133	 1	 0	 0	 0	 0	 3	 1	 0	 33	 1	 1.1	 0.9;
	 134	 1	 9.25038510654	-3.81287449774	 0	 0	 3	 1	 0	 132	 1	 1.1	 0.9;
	 135	 1	 15.3943114057	 5.81711229393	 0	 0	 3	 1	 0	 66	 1	 1.1	 0.9;
	 136	 1	 0	 0	 0	 0	 3	 1	 0	 66	 1	 1.1	 0.9;
	 137	 2	 0	 0	 0	 0	 3	 1	 0	 132	 1	 1.1	 0.9;
	 138	 1	 41.3555862886	 13.2489528713	 0	 14.5346539434	 3	 1	 0	 22	 1	 1.1	 0.9;
	 139	 1	 12.7503727151	 1.73547429524	 0	 0	 3	 1	 0	 132	 1	 1.1	 0.9;
	 140	 1	 1.55839186982	 1.48272143784	 0	 0	 3	 1	 0	 66	 1	 1.1	 0.9;
	 141	 1	 2.83483461229	-3.49736086112	 0	 0	 3	 1	 0	 66	 1	 1.1	 0.9;
	 142	 1	 14.5739448496	 6.40989256789	 0	 0	 3	 1	 0	 66	 1	 1.1	 0.9;
	 143	 1	 4.81612260275	 2.43793865752	 0	 0	 3	 1	 0	 33	 1	 1.1	 0.9;
	 144	 1	 0	 0	 0	 0	 3	 1	 0	 132	 1	 1.1	 0.9;
	 145	 1	 0.412398052035	 0.416703374319	 0	 0	 3	 1	 0	 6.6	 1	 1.1	 0.9;
	 146	 1	 0	 0	 0	 0	 3	 1	 0	 11	 1	 1.1	 0.9;
	 147	 2	 0	 0	 0	 0	 3	 1	 0	 11	 1	 1.1	 0.9;
	 148	 2	 1.04091281344	 0	 0	 0	 3	 1	 0	 11	 1	 1.1	 0.9;
	 149	 1	 0.147587679507	-2.54461793536	 0	 0	 3	 1	 0	 11	 1	 1.1	 0.9;
	 150	 2	 0.788296720284	 0	 0	 0	 3	 1	 0	 11	 1	 1.1	 0.9;
	 151	 2	 0.800680469194	 0	 0	 0	 3	 1	 0	 11	 1	 1.1	 0.9;
	 152	 2	 0	 0	 0	 0	 3	 1	 0	 11	 1	 1.1	 0.9;
	 153	 2	 0.502148675197	 0	 0	 0	 3	 1	 0	 11	 1	 1.1	 0.9;
	 154	 2	 0	 0	 0	 0	 3	 1	 0	 6.6	 1	 1.1	 0.9;
	 155	 1	 0	 0	 0	 0	 3	 1	 0	 13.8	 1	 1.1	 0.9;
	 156	 1	 0	 0	 0	 0	 3	 1	 0	 13.8	 1	 1.1	 0.9;
	 157	 1	 0	 0	 0	 0	 3	 1	 0	 15	 1	 1.1	 0.9;
	 158	 2	 5.91607474051	 0	 0	 0	 3	 1	 0	 11	 1	 1.1	 0.9;
	 159	 2	 3.27980087366	 0	 0	 0	 3	 1	 0	 10.5	 1	 1.1	 0.9;
	 160	 1	 0	 0	 0	 0	 3	 1	 0	 132	 1	 1.1	 0.9;
	 161	 1	 0	 0	 0	 0	 3	 1	 0	 132	 1	 1.1	 0.9;
	 162	 1	 0	 0	 0	 0	 3	 1	 0	 19.1	 1	 1.1	 0.9;
	 163	 1	 0	 0	 0	 0	 3	 1	 0	 19.1	 1	 1.1	 0.9;
	 164	 1	 0	 0	 0	 0	 3	 1	 0	 132	 1	 1.1	 0.9;
	 165	 1	 0	 0	 0	 0	 3	 1	 0	 19.1	 1	 1.1	 0.9;
	 166	 1	 0	 0	 0	 0	 3	 1	 0	 19.1	 1	 1.1	 0.9;
	 167	 1	 0	 0	 0	 0	 3	 1	 0	 19.1	 1	 1.1	 0.9;
	 168	 1	 56.4152170908	 46.5694678054	 0	 0	 3	 1	 0	 66	 1	 1.1	 0.9;
	 169	 1	 0	 0	 0	 0	 3	 1	 0	 19	 1	 1.1	 0.9;
	 170	 1	 0	 0	 0	 0	 3	 1	 0	 19	 1	 1.1	 0.9;
	 171	 1	 0	 0	 0	 0	 3	 1	 0	 132	 1	 1.1	 0.9;
	 172	 1	 0	 0	 0	-19.2753567409	 3	 1	 0	 19.1	 1	 1.1	 0.9;
	 173	 1	 0	 0	 0	 0	 3	 1	 0	 132	 1	 1.1	 0.9;
	 174	 1	 0	 0	 0	 0	 3	 1	 0	 132	 1	 1.1	 0.9;
	 175	 1	 0	 0	 0	 0	 3	 1	 0	 132	 1	 1.1	 0.9;
	 176	 1	 0	 0	 0	 0	 3	 1	 0	 275	 1	 1.1	 0.9;
	 177	 2	 0	 0	 0	-140.682391387	 3	 1	 0	 275	 1	 1.1	 0.9;
	 178	 2	 0	 0	 0	-189.684075474	 3	 1	 0	 275	 1	 1.1	 0.9;
	 179	 1	 0	 0	 0	 0	 3	 1	 0	 275	 1	 1.1	 0.9;
	 180	 1	 0	 0	 0	-50.1496852528	 3	 1	 0	 275	 1	 1.1	 0.9;
	 181	 1	 0	 0	 0	-61.2830935811	 3	 1	 0	 275	 1	 1.1	 0.9;
	 182	 2	 24.5770346608	 13.0201854812	 0	 0	 3	 1	 0	 20	 1	 1.1	 0.9;
	 183	 2	 25.8690819465	 12.3137372528	 0	 0	 3	 1	 0	 20	 1	 1.1	 0.9;
	 184	 2	 15.7197814612	 18.4986573796	 0	 0	 3	 1	 0	 20	 1	 1.1	 0.9;
	 185	 2	 25.1755951854	 12.3793406182	 0	 0	 3	 1	 0	 20	 1	 1.1	 0.9;
	 186	 2	 0	 0	 0	-80.1927778261	 3	 1	 0	 275	 1	 1.1	 0.9;
	 187	 1	 0	 0	 0	-21.1717429912	 3	 1	 0	 275	 1	 1.1	 0.9;
	 188	 1	 0	 0	 0	-19.8281210238	 3	 1	 0	 275	 1	 1.1	 0.9;
	 189	 1	 0	 0	 0	 0	 3	 1	 0	 275	 1	 1.1	 0.9;
	 190	 1	 1.92798706148	-16.8932983674	 0	 0	 3	 1	 0	 275	 1	 1.1	 0.9;
	 191	 1	 0	 0	 0	 0	 3	 1	 0	 132	 1	 1.1	 0.9;
	 192	 1	 0	 0	 0	 0	 3	 1	 0	 132	 1	 1.1	 0.9;
	 193	 1	 0	 0	 0	 0	 3	 1	 0	 132	 1	 1.1	 0.9;
	 194	 1	 0	 0	 0	 0	 3	 1	 0	 275	 1	 1.1	 0.9;
	 195	 1	 28.3156771736	 10.9532697966	 0	 15.5270842348	 3	 1	 0	 66	 1	 1.1	 0.9;
	 196	 1	 0	 0	 0	 0	 3	 1	 0	 132	 1	 1.1	 0.9;
	 197	 1	 21.8225086854	 4.55595191911	 0	 0	 3	 1	 0	 33	 1	 1.1	 0.9;
	 198	 1	 0	 0	 0	 0	 3	 1	 0	 132	 1	 1.1	 0.9;
	 199	 1	 0	 0	 0	 0	 3	 1	 0	 132	 1	 1.1	 0.9;
	 200	 1	 0	 0	 0	 0	 3	 1	 0	 132	 1	 1.1	 0.9;
...
];

mpc_regionR2.gen = [
%	bus         Pg          Qg          Qmax        Qmin        Vg          mBase       status      Pmax        Pmin        Pc1         Pc2         Qc1min      Qc1max      Qc2min      Qc2max      ramp_agc    ramp_10     ramp_30     ramp_q      apf         
	 121	 125	 0	 20	-20	 1	 240.121851233	 1	 250	 0;
	 99	 25	 0	 20	-20	 1	 47.8309784305	 1	 50	 0;
	 147	 20	 0	 20	-20	 1	 35.3824854665	 1	 40	 0;
	 148	 20	 0	 20	-20	 1	 35.1063570457	 1	 40	 0;
	 150	 15	 5	 20	-10	 1	 24.0841503046	 1	 30	 0;
	 151	 15	 5	 20	-10	 1	 24.7130107383	 1	 30	 0;
	 152	 15	 5	 20	-10	 1	 23.6974350719	 1	 30	 0;
	 153	 15	 5	 20	-10	 1	 24.5818638734	 1	 30	 0;
	 154	 5	 0	 10	-10	 1	 8.76514255389	 1	 10	 0;
	 158	 100	 10	 90	-70	 1	 195.968994494	 1	 200	 0;
	 159	 55	 5	 50	-40	 1	 105.795435098	 1	 110	 0;
	 182	 210	 50	 190	-90	 1	 416.378375744	 1	 420	 0;
	 183	 215	 50	 190	-90	 1	 426.8220308	 1	 430	 0;
	 184	 215	 10	 150	-130	 1	 423.626371388	 1	 430	 0;
	 185	 260	 50	 190	-90	 1	 515.843401	 1	 520	 0;
	 48	 55	 40	 170	-90	 1	 1.05007658096	 1	 110	 0;
	 124	 55	 15	 110	-80	 1	 1.09975473457	 1	 110	 0;
	 125	 55	 15	 110	-80	 1	 1.05775765323	 1	 110	 0;
	 127	 55	 15	 110	-80	 1	 1.09717493209	 1	 110	 0;
	 131	 55	 0	 110	-110	 1	 1.07825675532	 1	 110	 0;
	 137	 55	 35	 160	-90	 1	 1.05003915667	 1	 110	 0;
	 177	 55	 95	 280	-90	 1	 1.08463595104	 1	 110	 0;
	 178	 55	 40	 170	-90	 1	 1.06086461891	 1	 110	 0;
	 186	 55	 100	 280	-80	 1	 1.07012154777	 1	 110	 0;
];

mpc_regionR2.branch = [
%	fbus        tbus        r           x           b           rateA       rateB       rateC       ratio       angle       status      angmin      angmax      
	 5	 6	 0.03908298601	 0.0551169963012	 0.000749086190237	 48	 48	 48	 0	 0	 1	-30	 30;
	 5	 7	 0.662590266092	 0.871248187317	 0.000699821776038	 46	 46	 46	 0	 0	 1	-30	 30;
	 6	 7	 1.17680591756	 0.934207781286	 0.0113871761788	 34	 34	 34	 0	 0	 1	-30	 30;
	 8	 3	 0.0413755915969	 0.0747033290732	 0.0145854709586	 111	 111	 111	 0	 0	 1	-30	 30;
	 8	 3	 0.0376511835474	 0.0756178710627	 0.0152007927799	 119	 119	 119	 0	 0	 1	-30	 30;
	 8	 53	 0.061776641647	 0.117170786217	 0.0239077816709	 115	 115	 115	 0	 0	 1	-30	 30;
	 8	 92	 0.00993900165069	 0.0190100383118	 0.00384278772047	 115	 115	 115	 0	 0	 1	-30	 30;
	 9	 16	 0.0184779104815	 0.0345080977907	 0.00689017618793	 113	 113	 113	 0	 0	 1	-30	 30;
	 9	 17	 0.0207082205424	 0.0381667725978	 0.0409361975098	 113	 113	 113	 0	 0	 1	-30	 30;
	 9	 21	 0.0480240872368	 0.175733355785	 0.0395344174528	 170	 170	 170	 0	 0	 1	-30	 30;
	 9	 103	 0.0606803478055	 0.196907807652	 0.0447489919922	 159	 159	 159	 0	 0	 1	-30	 30;
	 9	 104	 0.0576775828591	 0.194540052061	 0.0456234773044	 162	 162	 162	 0	 0	 1	-30	 30;
	 14	 160	 0.0210933277787	 0.0520549496393	 0.0111508214732	 134	 134	 134	 0	 0	 1	-30	 30;
	 16	 19	 0.061760154157	 0.118550141896	 0.0238462934614	 115	 115	 115	 0	 0	 1	-30	 30;
	 19	 21	 0.0526697544734	 0.104776097443	 0.0187498448599	 118	 118	 118	 0	 0	 1	-30	 30;
	 21	 70	 0.0489610173991	 0.172710620989	 0.0387964333767	 167	 167	 167	 0	 0	 1	-30	 30;
	 21	 126	 0.0615253766053	 0.123344644062	 0.0235206096297	 118	 118	 118	 0	 0	 1	-30	 30;
	 1	 70	 0.0355097938863	 0.129135898875	 0.0297632750572	 170	 170	 170	 0	 0	 1	-30	 30;
	 1	 108	 0.0324777179877	 0.121329112043	 0.0256534991826	 173	 173	 173	 0	 0	 1	-30	 30;
	 1	 124	 0.00877755205777	 0.0244846625054	 0.00435888194008	 145	 145	 145	 0	 0	 1	-30	 30;
	 1	 126	 0.111779602765	 0.217512418485	 0.0408622231381	 116	 116	 116	 0	 0	 1	-30	 30;
	 1	 68	 0.0424210689269	 0.158126262467	 0.033220318496	 172	 172	 172	 0	 0	 1	-30	 30;
	 1	 68	 0.0430694985343	 0.165529266924	 0.031921661774	 176	 176	 176	 0	 0	 1	-30	 30;
	 1	 68	 0.0409610877724	 0.165796525427	 0.0325186464476	 181	 181	 181	 0	 0	 1	-30	 30;
	 3	 77	 0.0104404891203	 0.0209183774114	 0.00466119517269	 118	 118	 118	 0	 0	 1	-30	 30;
	 3	 78	 0.044088217122	 0.0827573658631	 0.0168704954171	 114	 114	 114	 0	 0	 1	-30	 30;
	 3	 81	 0.08039250599	 0.158510482319	 0.0322292892822	 117	 117	 117	 0	 0	 1	-30	 30;
	 3	 93	 0.0227316599828	 0.0833347897507	 0.0202412271561	 171	 171	 171	 0	 0	 1	-30	 30;
	 3	 119	 0.0157457848735	 0.0589773206802	 0.0140848877839	 173	 173	 173	 0	 0	 1	-30	 30;
	 3	 129	 0.0368807245805	 0.0675605555863	 0.013676338747	 112	 112	 112	 0	 0	 1	-30	 30;
	 3	 131	 0.00700361344309	 0.0244941548126	 0.00558868855932	 166	 166	 166	 0	 0	 1	-30	 30;
	 2	 78	 0.0548710324364	 0.101299434608	 0.0192358594553	 113	 113	 113	 0	 0	 1	-30	 30;
	 2	 79	 0.0242296099592	 0.0947455382176	 0.0182903796733	 177	 177	 177	 0	 0	 1	-30	 30;
	 2	 129	 0.05933402178	 0.113184639648	 0.0231229599669	 115	 115	 115	 0	 0	 1	-30	 30;
	 25	 26	 0.01245424826	 0.0243633309291	 0.00471632601598	 117	 117	 117	 0	 0	 1	-30	 30;
	 26	 45	 0.0355297122002	 0.0854092302164	 0.0164529681457	 132	 132	 132	 0	 0	 1	-30	 30;
	 26	 117	 0.0309523439422	 0.0802468777438	 0.0159753924933	 138	 138	 138	 0	 0	 1	-30	 30;
	 27	 98	 0.0119019424666	 0.0414621789718	 0.00996548730463	 165	 165	 165	 0	 0	 1	-30	 30;
	 27	 98	 0.0100482890252	 0.0443477342831	 0.00955158255436	 191	 191	 191	 0	 0	 1	-30	 30;
	 30	 128	 0.0140868747503	 0.0269391632933	 0.000405356808543	 58	 58	 58	 0	 0	 1	-30	 30;
	 30	 130	 0.012390437538	 0.0195247787754	 0.000298455140367	 51	 51	 51	 0	 0	 1	-30	 30;
	 30	 142	 0.0121725359951	 0.0193609221566	 0.00031097338662	 52	 52	 52	 0	 0	 1	-30	 30;
	 31	 196	 0.00512523189079	 0.00921032386801	 0.00191252192117	 111	 111	 111	 0	 0	 1	-30	 30;
	 32	 196	 0.00500378175457	 0.00983941271298	 0.0019377757394	 117	 117	 117	 0	 0	 1	-30	 30;
	 33	 88	 0.0199603926992	 0.110665008337	 0.0210684876234	 219	 219	 219	 0	 0	 1	-30	 30;
	 33	 109	 0.0109016029414	 0.0547409973757	 0.0112964000562	 207	 207	 207	 0	 0	 1	-30	 30;
	 33	 137	 0.0314859276898	 0.229327516783	 0.0856083323592	 259	 259	 259	 0	 0	 1	-30	 30;
	 33	 174	 0.041225725009	 0.279365811114	 0.132598391745	 248	 248	 248	 0	 0	 1	-30	 30;
	 36	 84	 0.0380010995308	 0.19840580978	 0.0292077832986	 211	 211	 211	 0	 0	 1	-30	 30;
	 36	 109	 0.017759406691	 0.0935833055538	 0.0178930380617	 213	 213	 213	 0	 0	 1	-30	 30;
	 39	 147	 0.0203310331793	 0.356938088708	 0.00257878577619	 89	 89	 89	 1	 0	 1	-30	 30;
	 39	 137	 0.0169550004733	 0.0316364616015	 0.00695134408868	 113	 113	 113	 0	 0	 1	-30	 30;
	 40	 137	 0.0187187064014	 0.0365459547209	 0.0073682230364	 117	 117	 117	 0	 0	 1	-30	 30;
	 43	 107	 0.0625316902116	 0.127289343168	 0.0254998367763	 120	 120	 120	 0	 0	 1	-30	 30;
	 43	 107	 0.0667563403858	 0.125129738896	 0.0249112102429	 114	 114	 114	 0	 0	 1	-30	 30;
	 43	 171	 0.0534517413107	 0.223637363289	 0.0619551772964	 185	 185	 185	 0	 0	 1	-30	 30;
	 43	 171	 0.0534910404538	 0.218077157154	 0.0522419571749	 182	 182	 182	 0	 0	 1	-30	 30;
	 45	 95	 0.00307295643426	 0.0109241135918	 0.00253761282619	 168	 168	 168	 0	 0	 1	-30	 30;
	 45	 96	 0.00291178556507	 0.0112795268988	 0.00247869265701	 176	 176	 176	 0	 0	 1	-30	 30;
	 45	 155	 0.00328816967251	 0.0761099044805	 0.00113979366227	 415	 415	 415	 1	 0	 1	-30	 30;
	 45	 156	 0.00322204575542	 0.075173397711	 0.00117532971924	 420	 420	 420	 1	 0	 1	-30	 30;
	 45	 100	 0.00274574048029	 0.0140209844625	 0.00301912363279	 209	 209	 209	 0	 0	 1	-30	 30;
	 45	 117	 0.0668909352352	 0.170171584014	 0.0358469713644	 137	 137	 137	 0	 0	 1	-30	 30;
	 45	 164	 0.00668108986176	 0.0360564460064	 0.00899129443733	 216	 216	 216	 0	 0	 1	-30	 30;
	 45	 164	 0.00701367809412	 0.0331938939485	 0.00853286753491	 199	 199	 199	 0	 0	 1	-30	 30;
	 46	 160	 0.0197999532302	 0.049702877083	 0.0110488518052	 136	 136	 136	 0	 0	 1	-30	 30;
	 48	 73	 0.0217736424136	 0.0415300595365	 0.00825872493361	 115	 115	 115	 0	 0	 1	-30	 30;
	 48	 98	 0.0194417659125	 0.0841919560077	 0.0188739520352	 189	 189	 189	 0	 0	 1	-30	 30;
	 48	 112	 0.00757609984149	 0.0248260195612	 0.00640015007748	 159	 159	 159	 0	 0	 1	-30	 30;
	 48	 197	 0.0133937855349	 0.200672404647	 0.00672019285205	 158	 158	 158	 1.05	 0	 1	-30	 30;
	 48	 116	 0.0114140881024	 0.0279287189746	 0.00673030182165	 134	 134	 134	 0	 0	 1	-30	 30;
	 48	 161	 0.0463387305316	 0.177456416756	 0.0384259396873	 175	 175	 175	 0	 0	 1	-30	 30;
	 50	 93	 0.0119899314002	 0.0457961754935	 0.0105305295993	 175	 175	 175	 0	 0	 1	-30	 30;
	 50	 161	 0.0207139973434	 0.0792017173805	 0.0188202128189	 175	 175	 175	 0	 0	 1	-30	 30;
	 53	 82	 0.120736164901	 0.220683233539	 0.0414385242289	 112	 112	 112	 0	 0	 1	-30	 30;
	 55	 57	 0.303037931083	 0.621740020843	 0.126958483845	 120	 120	 120	 0	 0	 1	-30	 30;
	 55	 68	 0.0571101495413	 0.22282575811	 0.046426588711	 177	 177	 177	 0	 0	 1	-30	 30;
	 59	 132	 0.0101303752059	 0.211445676706	 0.000589090544273	 150	 150	 150	 0.9625	 0	 1	-30	 30;
	 59	 164	 0.363904427517	 0.685013459453	 0.141234807817	 114	 114	 114	 0	 0	 1	-30	 30;
	 60	 164	 0.0083700340334	 0.0271672637433	 0.00612078556817	 159	 159	 159	 0	 0	 1	-30	 30;
	 60	 196	 0.00586457120537	 0.0146648837792	 0.00274738953999	 135	 135	 135	 0	 0	 1	-30	 30;
	 61	 164	 0.00927370207647	 0.0266834374949	 0.00614343622832	 147	 147	 147	 0	 0	 1	-30	 30;
	 61	 196	 0.00511332447546	 0.0140171460834	 0.00303728006514	 143	 143	 143	 0	 0	 1	-30	 30;
	 62	 123	 0.0106715244394	 0.0274112988438	 0.000461893785442	 69	 69	 69	 0	 0	 1	-30	 30;
	 62	 130	 0.0103577165641	 0.0268055537524	 0.000456102996699	 69	 69	 69	 0	 0	 1	-30	 30;
	 62	 136	 0.0301927672023	 0.0734222560506	 0.00125462824803	 67	 67	 67	 0	 0	 1	-30	 30;
	 63	 137	 0.00192986941374	 0.00517712034998	 0.0265878195101	 141	 141	 141	 0	 0	 1	-30	 30;
	 64	 137	 0.00196528796611	 0.0054991620248	 0.0257967639981	 145	 145	 145	 0	 0	 1	-30	 30;
	 100	 66	 0.00536533927164	 0.140613959135	 0.00298668429202	 225	 225	 225	 0.975	 0	 1	-30	 30;
	 66	 142	 0.0130587151676	 0.0202616184833	 0.000311701989127	 51	 51	 51	 0	 0	 1	-30	 30;
	 67	 164	 0.116707049297	 0.229630875301	 0.0444691115324	 117	 117	 117	 0	 0	 1	-30	 30;
	 69	 70	 0.0152817186025	 0.031629783735	 0.00627527049431	 121	 121	 121	 0	 0	 1	-30	 30;
	 71	 144	 0.0456456158079	 0.0908345910771	 0.0191978195755	 118	 118	 118	 0	 0	 1	-30	 30;
	 72	 160	 0.0129239824244	 0.0270546705023	 0.00582217136724	 122	 122	 122	 0	 0	 1	-30	 30;
	 74	 161	 0.0328885748787	 0.0666556654934	 0.013587067705	 119	 119	 119	 0	 0	 1	-30	 30;
	 75	 76	 0.0312188510789	 0.0630424658396	 0.0120647367095	 119	 119	 119	 0	 0	 1	-30	 30;
	 75	 131	 0.00683027216811	 0.0250166724279	 0.00568288529322	 171	 171	 171	 0	 0	 1	-30	 30;
	 75	 161	 0.0442456157328	 0.164216778043	 0.0355569126667	 172	 172	 172	 0	 0	 1	-30	 30;
	 79	 80	 0.0190454723401	 0.0357898803763	 0.00796553614682	 114	 114	 114	 0	 0	 1	-30	 30;
...